*SPEF "IEEE 1481-1998"
*DESIGN "iir_filter"
*DATE "Fri Mar 15 11:00:02 2019"
*VENDOR "Cadence Design Systems, Inc."
*PROGRAM "Innovus"
*VERSION "17.11-s080_1"
*DESIGN_FLOW "COUPLING C" "PIN_CAP NONE" "NAME_SCOPE LOCAL"
*DIVIDER /
*DELIMITER :
*BUS_DELIMITER []
*T_UNIT 1 NS
*C_UNIT 1 PF
*R_UNIT 1 OHM
*L_UNIT 1 HENRY

// MMMC spef file for corner 'my_rc'

*NAME_MAP

*1 FE_OFN5_rst_n
*2 FE_OFN4_rst_n
*3 FE_OFN3_DP_sw1_0
*4 FE_OFN2_DP_sw0_0
*5 FE_OFN1_DP_w_0
*6 FE_OFN0_sw_out_regs_en_int
*7 dIn[11]
*8 dIn[10]
*9 dIn[9]
*10 dIn[8]
*11 dIn[7]
*12 dIn[6]
*13 dIn[5]
*14 dIn[4]
*15 dIn[3]
*16 dIn[2]
*17 dIn[1]
*18 dIn[0]
*19 a[23]
*20 a[22]
*21 a[21]
*22 a[20]
*23 a[19]
*24 a[18]
*25 a[17]
*26 a[16]
*27 a[15]
*28 a[14]
*29 a[13]
*30 a[12]
*31 a[11]
*32 a[10]
*33 a[9]
*34 a[8]
*35 a[7]
*36 a[6]
*37 a[5]
*38 a[4]
*39 a[3]
*40 a[2]
*41 a[1]
*42 a[0]
*43 b[35]
*44 b[34]
*45 b[33]
*46 b[32]
*47 b[31]
*48 b[30]
*49 b[29]
*50 b[28]
*51 b[27]
*52 b[26]
*53 b[25]
*54 b[24]
*55 b[23]
*56 b[22]
*57 b[21]
*58 b[20]
*59 b[19]
*60 b[18]
*61 b[17]
*62 b[16]
*63 b[15]
*64 b[14]
*65 b[13]
*66 b[12]
*67 b[11]
*68 b[10]
*69 b[9]
*70 b[8]
*71 b[7]
*72 b[6]
*73 b[5]
*74 b[4]
*75 b[3]
*76 b[2]
*77 b[1]
*78 b[0]
*79 dOut[11]
*80 dOut[10]
*81 dOut[9]
*82 dOut[8]
*83 dOut[7]
*84 dOut[6]
*85 dOut[5]
*86 dOut[4]
*87 dOut[3]
*88 dOut[2]
*89 dOut[1]
*90 dOut[0]
*91 clk
*92 rst_n
*93 vIn
*94 vOut
*95 sw_out_regs_en_int
*96 DP_y_0_
*97 DP_y_1_
*98 DP_y_2_
*99 DP_y_3_
*100 DP_y_4_
*101 DP_y_5_
*102 DP_y_6_
*103 DP_y_7_
*104 DP_y_8_
*105 DP_y_9_
*106 DP_y_10_
*107 DP_y_11_
*108 DP_y_12_
*109 DP_sw1_0_
*110 DP_sw1_1_
*111 DP_sw1_2_
*112 DP_sw1_3_
*113 DP_sw1_4_
*114 DP_sw1_5_
*115 DP_sw1_6_
*116 DP_sw1_7_
*117 DP_sw1_8_
*118 DP_sw1_9_
*119 DP_sw1_10_
*120 DP_sw1_11_
*121 DP_sw1_12_
*122 DP_sw0_0_
*123 DP_sw0_1_
*124 DP_sw0_2_
*125 DP_sw0_3_
*126 DP_sw0_4_
*127 DP_sw0_5_
*128 DP_sw0_6_
*129 DP_sw0_7_
*130 DP_sw0_8_
*131 DP_sw0_9_
*132 DP_sw0_10_
*133 DP_sw0_11_
*134 DP_sw0_12_
*135 DP_w_0_
*136 DP_w_1_
*137 DP_w_2_
*138 DP_w_3_
*139 DP_w_4_
*140 DP_w_5_
*141 DP_w_6_
*142 DP_w_7_
*143 DP_w_8_
*144 DP_w_9_
*145 DP_w_10_
*146 DP_w_11_
*147 DP_w_12_
*148 CU_nextState_0_
*149 n138
*150 n139
*151 n140
*152 n141
*153 n142
*154 n143
*155 n144
*156 n145
*157 n146
*158 n147
*159 n247
*160 n248
*161 n249
*162 n250
*163 n251
*164 n252
*165 n253
*166 n254
*167 n255
*168 n256
*169 n257
*170 n258
*171 n259
*172 n260
*173 n261
*174 n262
*175 n263
*176 n264
*177 n265
*178 n266
*179 n267
*180 n268
*181 n269
*182 n270
*183 n271
*184 n272
*185 n273
*186 n274
*187 n275
*188 n276
*189 n277
*190 n278
*191 n279
*192 n280
*193 n281
*194 n282
*195 n283
*196 n284
*197 n285
*198 n286
*199 n287
*200 n288
*201 n289
*202 n290
*203 n291
*204 n292
*205 n293
*206 n294
*207 n295
*208 n296
*209 n297
*210 n298
*211 n299
*212 n300
*213 n301
*214 n302
*215 n303
*216 n304
*217 n305
*218 n306
*219 n307
*220 n308
*221 n309
*222 n310
*223 n311
*224 n312
*225 n313
*226 n314
*227 n315
*228 n316
*229 n317
*230 n318
*231 n319
*232 n320
*233 n321
*234 n322
*235 n323
*236 n324
*237 n325
*238 n326
*239 n327
*240 n328
*241 n329
*242 n330
*243 n331
*244 n332
*245 n333
*246 n334
*247 n335
*248 n336
*249 n337
*250 n338
*251 n339
*252 n340
*253 n341
*254 n342
*255 n343
*256 n344
*257 n345
*258 n346
*259 n347
*260 n348
*261 n349
*262 n350
*263 n351
*264 n352
*265 n353
*266 n354
*267 n355
*268 n356
*269 n357
*270 n358
*271 DP_ff_9_
*272 DP_ff_8_
*273 DP_ff_7_
*274 DP_ff_6_
*275 DP_ff_5_
*276 DP_ff_4_
*277 DP_ff_3_
*278 DP_ff_2_
*279 DP_ff_1_
*280 DP_ff_12_
*281 DP_ff_11_
*282 DP_ff_10_
*283 DP_ff_0_
*284 DP_fb_9_
*285 DP_fb_8_
*286 DP_fb_7_
*287 DP_fb_6_
*288 DP_fb_5_
*289 DP_fb_4_
*290 DP_fb_3_
*291 DP_fb_2_
*292 DP_fb_1_
*293 DP_fb_12_
*294 DP_fb_11_
*295 DP_fb_10_
*296 DP_fb_0_
*297 n391
*298 n392
*299 n393
*300 n394
*301 n395
*302 n396
*303 n397
*304 n398
*305 n399
*306 n400
*307 n401
*308 n402
*309 n403
*310 n404
*311 n405
*312 DP_w_b0[0]
*313 DP_w_b0[1]
*314 DP_w_b0[2]
*315 DP_w_b0[3]
*316 DP_w_b0[4]
*317 DP_w_b0[5]
*318 DP_w_b0[6]
*319 DP_w_b0[7]
*320 DP_w_b0[8]
*321 DP_w_b0[9]
*322 DP_w_b0[10]
*323 DP_w_b0[11]
*324 DP_sw1_b2[0]
*325 DP_sw1_b2[1]
*326 DP_sw1_b2[2]
*327 DP_sw1_b2[3]
*328 DP_sw1_b2[4]
*329 DP_sw1_b2[5]
*330 DP_sw1_b2[6]
*331 DP_sw1_b2[7]
*332 DP_sw1_b2[8]
*333 DP_sw1_b2[9]
*334 DP_sw1_b2[10]
*335 DP_sw1_b2[11]
*336 DP_sw0_b1[0]
*337 DP_sw0_b1[1]
*338 DP_sw0_b1[2]
*339 DP_sw0_b1[3]
*340 DP_sw0_b1[4]
*341 DP_sw0_b1[5]
*342 DP_sw0_b1[6]
*343 DP_sw0_b1[7]
*344 DP_sw0_b1[8]
*345 DP_sw0_b1[9]
*346 DP_sw0_b1[10]
*347 DP_sw0_b1[11]
*348 DP_sw1_a2[0]
*349 DP_sw1_a2[1]
*350 DP_sw1_a2[2]
*351 DP_sw1_a2[3]
*352 DP_sw1_a2[4]
*353 DP_sw1_a2[5]
*354 DP_sw1_a2[6]
*355 DP_sw1_a2[7]
*356 DP_sw1_a2[8]
*357 DP_sw1_a2[9]
*358 DP_sw1_a2[10]
*359 DP_sw1_a2[11]
*360 DP_sw0_a1[0]
*361 DP_sw0_a1[1]
*362 DP_sw0_a1[2]
*363 DP_sw0_a1[3]
*364 DP_sw0_a1[4]
*365 DP_sw0_a1[5]
*366 DP_sw0_a1[6]
*367 DP_sw0_a1[7]
*368 DP_sw0_a1[8]
*369 DP_sw0_a1[9]
*370 DP_sw0_a1[10]
*371 DP_sw0_a1[11]
*372 DP_b_int[35]
*373 DP_b_int[34]
*374 DP_b_int[33]
*375 DP_b_int[32]
*376 DP_b_int[31]
*377 DP_b_int[30]
*378 DP_b_int[29]
*379 DP_b_int[28]
*380 DP_b_int[27]
*381 DP_b_int[26]
*382 DP_b_int[25]
*383 DP_b_int[24]
*384 DP_b_int[23]
*385 DP_b_int[22]
*386 DP_b_int[21]
*387 DP_b_int[20]
*388 DP_b_int[19]
*389 DP_b_int[18]
*390 DP_b_int[17]
*391 DP_b_int[16]
*392 DP_b_int[15]
*393 DP_b_int[14]
*394 DP_b_int[13]
*395 DP_b_int[12]
*396 DP_b_int[11]
*397 DP_b_int[10]
*398 DP_b_int[9]
*399 DP_b_int[8]
*400 DP_b_int[7]
*401 DP_b_int[6]
*402 DP_b_int[5]
*403 DP_b_int[4]
*404 DP_b_int[3]
*405 DP_b_int[2]
*406 DP_b_int[1]
*407 DP_b_int[0]
*408 DP_a_int[23]
*409 DP_a_int[22]
*410 DP_a_int[21]
*411 DP_a_int[20]
*412 DP_a_int[19]
*413 DP_a_int[18]
*414 DP_a_int[17]
*415 DP_a_int[16]
*416 DP_a_int[15]
*417 DP_a_int[14]
*418 DP_a_int[13]
*419 DP_a_int[12]
*420 DP_a_int[11]
*421 DP_a_int[10]
*422 DP_a_int[9]
*423 DP_a_int[8]
*424 DP_a_int[7]
*425 DP_a_int[6]
*426 DP_a_int[5]
*427 DP_a_int[4]
*428 DP_a_int[3]
*429 DP_a_int[2]
*430 DP_a_int[1]
*431 DP_a_int[0]
*432 DP_x[0]
*433 DP_x[1]
*434 DP_x[2]
*435 DP_x[3]
*436 DP_x[4]
*437 DP_x[5]
*438 DP_x[6]
*439 DP_x[7]
*440 DP_x[8]
*441 DP_x[9]
*442 DP_x[10]
*443 DP_x[11]
*444 add_1_root_add_0_root_DP_add_107/carry_12_
*445 add_1_root_add_0_root_DP_add_107/carry_11_
*446 add_1_root_add_0_root_DP_add_107/carry_10_
*447 add_1_root_add_0_root_DP_add_107/carry_9_
*448 add_1_root_add_0_root_DP_add_107/carry_8_
*449 add_1_root_add_0_root_DP_add_107/carry_7_
*450 add_1_root_add_0_root_DP_add_107/carry_6_
*451 add_1_root_add_0_root_DP_add_107/carry_5_
*452 add_1_root_add_0_root_DP_add_107/carry_4_
*453 add_1_root_add_0_root_DP_add_107/carry_3_
*454 add_1_root_add_0_root_DP_add_107/carry_2_
*455 add_1_root_add_0_root_DP_add_107/carry_1_
*456 add_0_root_add_0_root_DP_add_107/carry_12_
*457 add_0_root_add_0_root_DP_add_107/carry_11_
*458 add_0_root_add_0_root_DP_add_107/carry_10_
*459 add_0_root_add_0_root_DP_add_107/carry_9_
*460 add_0_root_add_0_root_DP_add_107/carry_8_
*461 add_0_root_add_0_root_DP_add_107/carry_7_
*462 add_0_root_add_0_root_DP_add_107/carry_6_
*463 add_0_root_add_0_root_DP_add_107/carry_5_
*464 add_0_root_add_0_root_DP_add_107/carry_4_
*465 add_0_root_add_0_root_DP_add_107/carry_3_
*466 add_0_root_add_0_root_DP_add_107/carry_2_
*467 add_0_root_add_0_root_DP_add_107/carry_1_
*468 DP_mult_105/n115
*469 DP_mult_105/n116
*470 DP_mult_105/n117
*471 DP_mult_105/n118
*472 DP_mult_105/n119
*473 DP_mult_105/n120
*474 DP_mult_105/n121
*475 DP_mult_105/n122
*476 DP_mult_105/n123
*477 DP_mult_105/n124
*478 DP_mult_105/n125
*479 DP_mult_105/n126
*480 DP_mult_105/n138
*481 DP_mult_105/n139
*482 DP_mult_105/n140
*483 DP_mult_105/n141
*484 DP_mult_105/n142
*485 DP_mult_105/n143
*486 DP_mult_105/n144
*487 DP_mult_105/n145
*488 DP_mult_105/n146
*489 DP_mult_105/n147
*490 DP_mult_105/n148
*491 DP_mult_105/n149
*492 DP_mult_105/n150
*493 DP_mult_105/n151
*494 DP_mult_105/n152
*495 DP_mult_105/n153
*496 DP_mult_105/n154
*497 DP_mult_105/n155
*498 DP_mult_105/n156
*499 DP_mult_105/n157
*500 DP_mult_105/n158
*501 DP_mult_105/n159
*502 DP_mult_105/n160
*503 DP_mult_105/n161
*504 DP_mult_105/n162
*505 DP_mult_105/n163
*506 DP_mult_105/n164
*507 DP_mult_105/n165
*508 DP_mult_105/n166
*509 DP_mult_105/n167
*510 DP_mult_105/n168
*511 DP_mult_105/n169
*512 DP_mult_105/n170
*513 DP_mult_105/n171
*514 DP_mult_105/n172
*515 DP_mult_105/n173
*516 DP_mult_105/n174
*517 DP_mult_105/n175
*518 DP_mult_105/n176
*519 DP_mult_105/n177
*520 DP_mult_105/n178
*521 DP_mult_105/n179
*522 DP_mult_105/n180
*523 DP_mult_105/n181
*524 DP_mult_105/n182
*525 DP_mult_105/n183
*526 DP_mult_105/n184
*527 DP_mult_105/n185
*528 DP_mult_105/n186
*529 DP_mult_105/n187
*530 DP_mult_105/n188
*531 DP_mult_105/n189
*532 DP_mult_105/n190
*533 DP_mult_105/n191
*534 DP_mult_105/n192
*535 DP_mult_105/n193
*536 DP_mult_105/n194
*537 DP_mult_105/n195
*538 DP_mult_105/n196
*539 DP_mult_105/n197
*540 DP_mult_105/n198
*541 DP_mult_105/n199
*542 DP_mult_105/n200
*543 DP_mult_105/n201
*544 DP_mult_105/n202
*545 DP_mult_105/n203
*546 DP_mult_105/n204
*547 DP_mult_105/n205
*548 DP_mult_105/n206
*549 DP_mult_105/n207
*550 DP_mult_105/n208
*551 DP_mult_105/n209
*552 DP_mult_105/n210
*553 DP_mult_105/n211
*554 DP_mult_105/n212
*555 DP_mult_105/n213
*556 DP_mult_105/n214
*557 DP_mult_105/n215
*558 DP_mult_105/n216
*559 DP_mult_105/n217
*560 DP_mult_105/n218
*561 DP_mult_105/n219
*562 DP_mult_105/n220
*563 DP_mult_105/n221
*564 DP_mult_105/n222
*565 DP_mult_105/n223
*566 DP_mult_105/n224
*567 DP_mult_105/n225
*568 DP_mult_105/n226
*569 DP_mult_105/n227
*570 DP_mult_105/n228
*571 DP_mult_105/n229
*572 DP_mult_105/n230
*573 DP_mult_105/n231
*574 DP_mult_105/n232
*575 DP_mult_105/n233
*576 DP_mult_105/n234
*577 DP_mult_105/n235
*578 DP_mult_105/n236
*579 DP_mult_105/n237
*580 DP_mult_105/n238
*581 DP_mult_105/n239
*582 DP_mult_105/n240
*583 DP_mult_105/n241
*584 DP_mult_105/n242
*585 DP_mult_105/n243
*586 DP_mult_105/n244
*587 DP_mult_105/n245
*588 DP_mult_105/n246
*589 DP_mult_105/n247
*590 DP_mult_105/n248
*591 DP_mult_105/n249
*592 DP_mult_105/n250
*593 DP_mult_105/n251
*594 DP_mult_105/n252
*595 DP_mult_105/n253
*596 DP_mult_105/n254
*597 DP_mult_105/n255
*598 DP_mult_105/n256
*599 DP_mult_105/n257
*600 DP_mult_105/n258
*601 DP_mult_105/n259
*602 DP_mult_105/n263
*603 DP_mult_105/n264
*604 DP_mult_105/n265
*605 DP_mult_105/n266
*606 DP_mult_105/n267
*607 DP_mult_105/n268
*608 DP_mult_105/n269
*609 DP_mult_105/n270
*610 DP_mult_105/n271
*611 DP_mult_105/n272
*612 DP_mult_105/n273
*613 DP_mult_105/n274
*614 DP_mult_105/n275
*615 DP_mult_105/n276
*616 DP_mult_105/n277
*617 DP_mult_105/n278
*618 DP_mult_105/n279
*619 DP_mult_105/n280
*620 DP_mult_105/n281
*621 DP_mult_105/n283
*622 DP_mult_105/n284
*623 DP_mult_105/n285
*624 DP_mult_105/n286
*625 DP_mult_105/n287
*626 DP_mult_105/n288
*627 DP_mult_105/n289
*628 DP_mult_105/n290
*629 DP_mult_105/n291
*630 DP_mult_105/n292
*631 DP_mult_105/n293
*632 DP_mult_105/n294
*633 DP_mult_105/n295
*634 DP_mult_105/n296
*635 DP_mult_105/n297
*636 DP_mult_105/n298
*637 DP_mult_105/n299
*638 DP_mult_105/n300
*639 DP_mult_105/n301
*640 DP_mult_105/n302
*641 DP_mult_105/n303
*642 DP_mult_105/n305
*643 DP_mult_105/n306
*644 DP_mult_105/n307
*645 DP_mult_105/n308
*646 DP_mult_105/n309
*647 DP_mult_105/n310
*648 DP_mult_105/n311
*649 DP_mult_105/n312
*650 DP_mult_105/n313
*651 DP_mult_105/n314
*652 DP_mult_105/n315
*653 DP_mult_105/n316
*654 DP_mult_105/n317
*655 DP_mult_105/n318
*656 DP_mult_105/n319
*657 DP_mult_105/n320
*658 DP_mult_105/n321
*659 DP_mult_105/n322
*660 DP_mult_105/n323
*661 DP_mult_105/n324
*662 DP_mult_105/n325
*663 DP_mult_105/n327
*664 DP_mult_105/n328
*665 DP_mult_105/n329
*666 DP_mult_105/n330
*667 DP_mult_105/n331
*668 DP_mult_105/n332
*669 DP_mult_105/n333
*670 DP_mult_105/n334
*671 DP_mult_105/n335
*672 DP_mult_105/n336
*673 DP_mult_105/n337
*674 DP_mult_105/n519
*675 DP_mult_105/n520
*676 DP_mult_105/n521
*677 DP_mult_105/n522
*678 DP_mult_105/n523
*679 DP_mult_105/n524
*680 DP_mult_105/n525
*681 DP_mult_105/n526
*682 DP_mult_105/n527
*683 DP_mult_105/n528
*684 DP_mult_105/n529
*685 DP_mult_105/n530
*686 DP_mult_105/n531
*687 DP_mult_105/n532
*688 DP_mult_105/n533
*689 DP_mult_105/n534
*690 DP_mult_105/n535
*691 DP_mult_105/n536
*692 DP_mult_105/n537
*693 DP_mult_105/n538
*694 DP_mult_105/n539
*695 DP_mult_105/n540
*696 DP_mult_105/n541
*697 DP_mult_105/n542
*698 DP_mult_105/n543
*699 DP_mult_105/n544
*700 DP_mult_105/n545
*701 DP_mult_105/n546
*702 DP_mult_105/n547
*703 DP_mult_105/n548
*704 DP_mult_105/n549
*705 DP_mult_105/n550
*706 DP_mult_105/n551
*707 DP_mult_105/n552
*708 DP_mult_105/n553
*709 DP_mult_105/n554
*710 DP_mult_105/n555
*711 DP_mult_105/n556
*712 DP_mult_105/n557
*713 DP_mult_105/n558
*714 DP_mult_105/n559
*715 DP_mult_105/n560
*716 DP_mult_105/n561
*717 DP_mult_105/n562
*718 DP_mult_105/n563
*719 DP_mult_105/n564
*720 DP_mult_105/n565
*721 DP_mult_105/n566
*722 DP_mult_105/n567
*723 DP_mult_105/n568
*724 DP_mult_105/n569
*725 DP_mult_105/n570
*726 DP_mult_105/n571
*727 DP_mult_105/n572
*728 DP_mult_105/n573
*729 DP_mult_105/n574
*730 DP_mult_105/n575
*731 DP_mult_105/n576
*732 DP_mult_105/n577
*733 DP_mult_105/n578
*734 DP_mult_105/n579
*735 DP_mult_105/n580
*736 DP_mult_105/n581
*737 DP_mult_105/n582
*738 DP_mult_105/n583
*739 DP_mult_105/n584
*740 DP_mult_105/n585
*741 DP_mult_105/n586
*742 DP_mult_105/n587
*743 DP_mult_105/n588
*744 DP_mult_105/n589
*745 DP_mult_105/n590
*746 DP_mult_105/n591
*747 DP_mult_105/n592
*748 DP_mult_105/n593
*749 DP_mult_105/n594
*750 DP_mult_105/n595
*751 DP_mult_105/n596
*752 DP_mult_105/n597
*753 DP_mult_105/n598
*754 DP_mult_105/n599
*755 DP_mult_105/n600
*756 DP_mult_105/n601
*757 DP_mult_105/n602
*758 DP_mult_105/n603
*759 DP_mult_105/n604
*760 DP_mult_105/n605
*761 DP_mult_105/n606
*762 DP_mult_105/n607
*763 DP_mult_105/n608
*764 DP_mult_105/n609
*765 DP_mult_105/n610
*766 DP_mult_105/n611
*767 DP_mult_105/n612
*768 DP_mult_105/n613
*769 DP_mult_105/n614
*770 DP_mult_105/n615
*771 DP_mult_105/n616
*772 DP_mult_105/n617
*773 DP_mult_105/n618
*774 DP_mult_105/n619
*775 DP_mult_105/n620
*776 DP_mult_105/n621
*777 DP_mult_105/n622
*778 DP_mult_105/n623
*779 DP_mult_105/n624
*780 DP_mult_105/n625
*781 DP_mult_105/n626
*782 DP_mult_105/n627
*783 DP_mult_105/n628
*784 DP_mult_105/n629
*785 DP_mult_105/n630
*786 DP_mult_105/n631
*787 DP_mult_105/n632
*788 DP_mult_105/n633
*789 DP_mult_105/n634
*790 DP_mult_105/n635
*791 DP_mult_105/n636
*792 DP_mult_105/n637
*793 DP_mult_105/n638
*794 DP_mult_105/n639
*795 DP_mult_105/n640
*796 DP_mult_105/n641
*797 DP_mult_105/n642
*798 DP_mult_105/n643
*799 DP_mult_105/n644
*800 DP_mult_105/n645
*801 DP_mult_105/n646
*802 DP_mult_105/n647
*803 DP_mult_105/n648
*804 DP_mult_105/n649
*805 DP_mult_105/n650
*806 DP_mult_105/n651
*807 DP_mult_105/n652
*808 DP_mult_105/n653
*809 DP_mult_105/n654
*810 DP_mult_105/n655
*811 DP_mult_105/n656
*812 DP_mult_105/n657
*813 DP_mult_105/n658
*814 DP_mult_105/n659
*815 DP_mult_105/n660
*816 sub_1_root_sub_0_root_DP_sub_104/carry_12_
*817 sub_1_root_sub_0_root_DP_sub_104/carry_11_
*818 sub_1_root_sub_0_root_DP_sub_104/carry_10_
*819 sub_1_root_sub_0_root_DP_sub_104/carry_9_
*820 sub_1_root_sub_0_root_DP_sub_104/carry_8_
*821 sub_1_root_sub_0_root_DP_sub_104/carry_7_
*822 sub_1_root_sub_0_root_DP_sub_104/carry_6_
*823 sub_1_root_sub_0_root_DP_sub_104/carry_5_
*824 sub_1_root_sub_0_root_DP_sub_104/carry_4_
*825 sub_1_root_sub_0_root_DP_sub_104/carry_3_
*826 sub_1_root_sub_0_root_DP_sub_104/carry_2_
*827 sub_1_root_sub_0_root_DP_sub_104/carry_1_
*828 sub_1_root_sub_0_root_DP_sub_104/B_not_12_
*829 sub_1_root_sub_0_root_DP_sub_104/B_not_10_
*830 sub_1_root_sub_0_root_DP_sub_104/B_not_9_
*831 sub_1_root_sub_0_root_DP_sub_104/B_not_8_
*832 sub_1_root_sub_0_root_DP_sub_104/B_not_7_
*833 sub_1_root_sub_0_root_DP_sub_104/B_not_6_
*834 sub_1_root_sub_0_root_DP_sub_104/B_not_5_
*835 sub_1_root_sub_0_root_DP_sub_104/B_not_4_
*836 sub_1_root_sub_0_root_DP_sub_104/B_not_3_
*837 sub_1_root_sub_0_root_DP_sub_104/B_not_2_
*838 sub_1_root_sub_0_root_DP_sub_104/B_not_1_
*839 sub_1_root_sub_0_root_DP_sub_104/B_not_0_
*840 sub_0_root_sub_0_root_DP_sub_104/carry_12_
*841 sub_0_root_sub_0_root_DP_sub_104/carry_11_
*842 sub_0_root_sub_0_root_DP_sub_104/carry_10_
*843 sub_0_root_sub_0_root_DP_sub_104/carry_9_
*844 sub_0_root_sub_0_root_DP_sub_104/carry_8_
*845 sub_0_root_sub_0_root_DP_sub_104/carry_7_
*846 sub_0_root_sub_0_root_DP_sub_104/carry_6_
*847 sub_0_root_sub_0_root_DP_sub_104/carry_5_
*848 sub_0_root_sub_0_root_DP_sub_104/carry_4_
*849 sub_0_root_sub_0_root_DP_sub_104/carry_3_
*850 sub_0_root_sub_0_root_DP_sub_104/carry_2_
*851 sub_0_root_sub_0_root_DP_sub_104/carry_1_
*852 sub_0_root_sub_0_root_DP_sub_104/B_not_12_
*853 sub_0_root_sub_0_root_DP_sub_104/B_not_10_
*854 sub_0_root_sub_0_root_DP_sub_104/B_not_9_
*855 sub_0_root_sub_0_root_DP_sub_104/B_not_8_
*856 sub_0_root_sub_0_root_DP_sub_104/B_not_7_
*857 sub_0_root_sub_0_root_DP_sub_104/B_not_6_
*858 sub_0_root_sub_0_root_DP_sub_104/B_not_5_
*859 sub_0_root_sub_0_root_DP_sub_104/B_not_4_
*860 sub_0_root_sub_0_root_DP_sub_104/B_not_3_
*861 sub_0_root_sub_0_root_DP_sub_104/B_not_2_
*862 sub_0_root_sub_0_root_DP_sub_104/B_not_1_
*863 sub_0_root_sub_0_root_DP_sub_104/B_not_0_
*864 DP_mult_98/n115
*865 DP_mult_98/n116
*866 DP_mult_98/n117
*867 DP_mult_98/n118
*868 DP_mult_98/n119
*869 DP_mult_98/n120
*870 DP_mult_98/n121
*871 DP_mult_98/n122
*872 DP_mult_98/n123
*873 DP_mult_98/n124
*874 DP_mult_98/n125
*875 DP_mult_98/n126
*876 DP_mult_98/n138
*877 DP_mult_98/n139
*878 DP_mult_98/n140
*879 DP_mult_98/n141
*880 DP_mult_98/n142
*881 DP_mult_98/n143
*882 DP_mult_98/n144
*883 DP_mult_98/n145
*884 DP_mult_98/n146
*885 DP_mult_98/n147
*886 DP_mult_98/n148
*887 DP_mult_98/n149
*888 DP_mult_98/n150
*889 DP_mult_98/n151
*890 DP_mult_98/n152
*891 DP_mult_98/n153
*892 DP_mult_98/n154
*893 DP_mult_98/n155
*894 DP_mult_98/n156
*895 DP_mult_98/n157
*896 DP_mult_98/n158
*897 DP_mult_98/n159
*898 DP_mult_98/n160
*899 DP_mult_98/n161
*900 DP_mult_98/n162
*901 DP_mult_98/n163
*902 DP_mult_98/n164
*903 DP_mult_98/n165
*904 DP_mult_98/n166
*905 DP_mult_98/n167
*906 DP_mult_98/n168
*907 DP_mult_98/n169
*908 DP_mult_98/n170
*909 DP_mult_98/n171
*910 DP_mult_98/n172
*911 DP_mult_98/n173
*912 DP_mult_98/n174
*913 DP_mult_98/n175
*914 DP_mult_98/n176
*915 DP_mult_98/n177
*916 DP_mult_98/n178
*917 DP_mult_98/n179
*918 DP_mult_98/n180
*919 DP_mult_98/n181
*920 DP_mult_98/n182
*921 DP_mult_98/n183
*922 DP_mult_98/n184
*923 DP_mult_98/n185
*924 DP_mult_98/n186
*925 DP_mult_98/n187
*926 DP_mult_98/n188
*927 DP_mult_98/n189
*928 DP_mult_98/n190
*929 DP_mult_98/n191
*930 DP_mult_98/n192
*931 DP_mult_98/n193
*932 DP_mult_98/n194
*933 DP_mult_98/n195
*934 DP_mult_98/n196
*935 DP_mult_98/n197
*936 DP_mult_98/n198
*937 DP_mult_98/n199
*938 DP_mult_98/n200
*939 DP_mult_98/n201
*940 DP_mult_98/n202
*941 DP_mult_98/n203
*942 DP_mult_98/n204
*943 DP_mult_98/n205
*944 DP_mult_98/n206
*945 DP_mult_98/n207
*946 DP_mult_98/n208
*947 DP_mult_98/n209
*948 DP_mult_98/n210
*949 DP_mult_98/n211
*950 DP_mult_98/n212
*951 DP_mult_98/n213
*952 DP_mult_98/n214
*953 DP_mult_98/n215
*954 DP_mult_98/n216
*955 DP_mult_98/n217
*956 DP_mult_98/n218
*957 DP_mult_98/n219
*958 DP_mult_98/n220
*959 DP_mult_98/n221
*960 DP_mult_98/n222
*961 DP_mult_98/n223
*962 DP_mult_98/n224
*963 DP_mult_98/n225
*964 DP_mult_98/n226
*965 DP_mult_98/n227
*966 DP_mult_98/n228
*967 DP_mult_98/n229
*968 DP_mult_98/n230
*969 DP_mult_98/n231
*970 DP_mult_98/n232
*971 DP_mult_98/n233
*972 DP_mult_98/n234
*973 DP_mult_98/n235
*974 DP_mult_98/n236
*975 DP_mult_98/n237
*976 DP_mult_98/n238
*977 DP_mult_98/n239
*978 DP_mult_98/n240
*979 DP_mult_98/n241
*980 DP_mult_98/n242
*981 DP_mult_98/n243
*982 DP_mult_98/n244
*983 DP_mult_98/n245
*984 DP_mult_98/n246
*985 DP_mult_98/n247
*986 DP_mult_98/n248
*987 DP_mult_98/n249
*988 DP_mult_98/n250
*989 DP_mult_98/n251
*990 DP_mult_98/n252
*991 DP_mult_98/n253
*992 DP_mult_98/n254
*993 DP_mult_98/n255
*994 DP_mult_98/n256
*995 DP_mult_98/n257
*996 DP_mult_98/n258
*997 DP_mult_98/n259
*998 DP_mult_98/n263
*999 DP_mult_98/n264
*1000 DP_mult_98/n265
*1001 DP_mult_98/n266
*1002 DP_mult_98/n267
*1003 DP_mult_98/n268
*1004 DP_mult_98/n269
*1005 DP_mult_98/n270
*1006 DP_mult_98/n271
*1007 DP_mult_98/n272
*1008 DP_mult_98/n273
*1009 DP_mult_98/n274
*1010 DP_mult_98/n275
*1011 DP_mult_98/n276
*1012 DP_mult_98/n277
*1013 DP_mult_98/n278
*1014 DP_mult_98/n279
*1015 DP_mult_98/n280
*1016 DP_mult_98/n281
*1017 DP_mult_98/n283
*1018 DP_mult_98/n284
*1019 DP_mult_98/n285
*1020 DP_mult_98/n286
*1021 DP_mult_98/n287
*1022 DP_mult_98/n288
*1023 DP_mult_98/n289
*1024 DP_mult_98/n290
*1025 DP_mult_98/n291
*1026 DP_mult_98/n292
*1027 DP_mult_98/n293
*1028 DP_mult_98/n294
*1029 DP_mult_98/n295
*1030 DP_mult_98/n296
*1031 DP_mult_98/n297
*1032 DP_mult_98/n298
*1033 DP_mult_98/n299
*1034 DP_mult_98/n300
*1035 DP_mult_98/n301
*1036 DP_mult_98/n302
*1037 DP_mult_98/n303
*1038 DP_mult_98/n305
*1039 DP_mult_98/n306
*1040 DP_mult_98/n307
*1041 DP_mult_98/n308
*1042 DP_mult_98/n309
*1043 DP_mult_98/n310
*1044 DP_mult_98/n311
*1045 DP_mult_98/n312
*1046 DP_mult_98/n313
*1047 DP_mult_98/n314
*1048 DP_mult_98/n315
*1049 DP_mult_98/n316
*1050 DP_mult_98/n317
*1051 DP_mult_98/n318
*1052 DP_mult_98/n319
*1053 DP_mult_98/n320
*1054 DP_mult_98/n321
*1055 DP_mult_98/n322
*1056 DP_mult_98/n323
*1057 DP_mult_98/n324
*1058 DP_mult_98/n325
*1059 DP_mult_98/n327
*1060 DP_mult_98/n328
*1061 DP_mult_98/n329
*1062 DP_mult_98/n330
*1063 DP_mult_98/n331
*1064 DP_mult_98/n332
*1065 DP_mult_98/n333
*1066 DP_mult_98/n334
*1067 DP_mult_98/n335
*1068 DP_mult_98/n336
*1069 DP_mult_98/n337
*1070 DP_mult_98/n519
*1071 DP_mult_98/n520
*1072 DP_mult_98/n521
*1073 DP_mult_98/n522
*1074 DP_mult_98/n523
*1075 DP_mult_98/n524
*1076 DP_mult_98/n525
*1077 DP_mult_98/n526
*1078 DP_mult_98/n527
*1079 DP_mult_98/n528
*1080 DP_mult_98/n529
*1081 DP_mult_98/n530
*1082 DP_mult_98/n531
*1083 DP_mult_98/n532
*1084 DP_mult_98/n533
*1085 DP_mult_98/n534
*1086 DP_mult_98/n535
*1087 DP_mult_98/n536
*1088 DP_mult_98/n537
*1089 DP_mult_98/n538
*1090 DP_mult_98/n539
*1091 DP_mult_98/n540
*1092 DP_mult_98/n541
*1093 DP_mult_98/n542
*1094 DP_mult_98/n543
*1095 DP_mult_98/n544
*1096 DP_mult_98/n545
*1097 DP_mult_98/n546
*1098 DP_mult_98/n547
*1099 DP_mult_98/n548
*1100 DP_mult_98/n549
*1101 DP_mult_98/n550
*1102 DP_mult_98/n551
*1103 DP_mult_98/n552
*1104 DP_mult_98/n553
*1105 DP_mult_98/n554
*1106 DP_mult_98/n555
*1107 DP_mult_98/n556
*1108 DP_mult_98/n557
*1109 DP_mult_98/n558
*1110 DP_mult_98/n559
*1111 DP_mult_98/n560
*1112 DP_mult_98/n561
*1113 DP_mult_98/n562
*1114 DP_mult_98/n563
*1115 DP_mult_98/n564
*1116 DP_mult_98/n565
*1117 DP_mult_98/n566
*1118 DP_mult_98/n567
*1119 DP_mult_98/n568
*1120 DP_mult_98/n569
*1121 DP_mult_98/n570
*1122 DP_mult_98/n571
*1123 DP_mult_98/n572
*1124 DP_mult_98/n573
*1125 DP_mult_98/n574
*1126 DP_mult_98/n575
*1127 DP_mult_98/n576
*1128 DP_mult_98/n577
*1129 DP_mult_98/n578
*1130 DP_mult_98/n579
*1131 DP_mult_98/n580
*1132 DP_mult_98/n581
*1133 DP_mult_98/n582
*1134 DP_mult_98/n583
*1135 DP_mult_98/n584
*1136 DP_mult_98/n585
*1137 DP_mult_98/n586
*1138 DP_mult_98/n587
*1139 DP_mult_98/n588
*1140 DP_mult_98/n589
*1141 DP_mult_98/n590
*1142 DP_mult_98/n591
*1143 DP_mult_98/n592
*1144 DP_mult_98/n593
*1145 DP_mult_98/n594
*1146 DP_mult_98/n595
*1147 DP_mult_98/n596
*1148 DP_mult_98/n597
*1149 DP_mult_98/n598
*1150 DP_mult_98/n599
*1151 DP_mult_98/n600
*1152 DP_mult_98/n601
*1153 DP_mult_98/n602
*1154 DP_mult_98/n603
*1155 DP_mult_98/n604
*1156 DP_mult_98/n605
*1157 DP_mult_98/n606
*1158 DP_mult_98/n607
*1159 DP_mult_98/n608
*1160 DP_mult_98/n609
*1161 DP_mult_98/n610
*1162 DP_mult_98/n611
*1163 DP_mult_98/n612
*1164 DP_mult_98/n613
*1165 DP_mult_98/n614
*1166 DP_mult_98/n615
*1167 DP_mult_98/n616
*1168 DP_mult_98/n617
*1169 DP_mult_98/n618
*1170 DP_mult_98/n619
*1171 DP_mult_98/n620
*1172 DP_mult_98/n621
*1173 DP_mult_98/n622
*1174 DP_mult_98/n623
*1175 DP_mult_98/n624
*1176 DP_mult_98/n625
*1177 DP_mult_98/n626
*1178 DP_mult_98/n627
*1179 DP_mult_98/n628
*1180 DP_mult_98/n629
*1181 DP_mult_98/n630
*1182 DP_mult_98/n631
*1183 DP_mult_98/n632
*1184 DP_mult_98/n633
*1185 DP_mult_98/n634
*1186 DP_mult_98/n635
*1187 DP_mult_98/n636
*1188 DP_mult_98/n637
*1189 DP_mult_98/n638
*1190 DP_mult_98/n639
*1191 DP_mult_98/n640
*1192 DP_mult_98/n641
*1193 DP_mult_98/n642
*1194 DP_mult_98/n643
*1195 DP_mult_98/n644
*1196 DP_mult_98/n645
*1197 DP_mult_98/n646
*1198 DP_mult_98/n647
*1199 DP_mult_98/n648
*1200 DP_mult_98/n649
*1201 DP_mult_98/n650
*1202 DP_mult_98/n651
*1203 DP_mult_98/n652
*1204 DP_mult_98/n653
*1205 DP_mult_98/n654
*1206 DP_mult_98/n655
*1207 DP_mult_98/n656
*1208 DP_mult_98/n657
*1209 DP_mult_98/n658
*1210 DP_mult_98/n659
*1211 DP_mult_98/n660
*1212 DP_mult_96/n115
*1213 DP_mult_96/n116
*1214 DP_mult_96/n117
*1215 DP_mult_96/n118
*1216 DP_mult_96/n119
*1217 DP_mult_96/n120
*1218 DP_mult_96/n121
*1219 DP_mult_96/n122
*1220 DP_mult_96/n123
*1221 DP_mult_96/n124
*1222 DP_mult_96/n125
*1223 DP_mult_96/n126
*1224 DP_mult_96/n138
*1225 DP_mult_96/n139
*1226 DP_mult_96/n140
*1227 DP_mult_96/n141
*1228 DP_mult_96/n142
*1229 DP_mult_96/n143
*1230 DP_mult_96/n144
*1231 DP_mult_96/n145
*1232 DP_mult_96/n146
*1233 DP_mult_96/n147
*1234 DP_mult_96/n148
*1235 DP_mult_96/n149
*1236 DP_mult_96/n150
*1237 DP_mult_96/n151
*1238 DP_mult_96/n152
*1239 DP_mult_96/n153
*1240 DP_mult_96/n154
*1241 DP_mult_96/n155
*1242 DP_mult_96/n156
*1243 DP_mult_96/n157
*1244 DP_mult_96/n158
*1245 DP_mult_96/n159
*1246 DP_mult_96/n160
*1247 DP_mult_96/n161
*1248 DP_mult_96/n162
*1249 DP_mult_96/n163
*1250 DP_mult_96/n164
*1251 DP_mult_96/n165
*1252 DP_mult_96/n166
*1253 DP_mult_96/n167
*1254 DP_mult_96/n168
*1255 DP_mult_96/n169
*1256 DP_mult_96/n170
*1257 DP_mult_96/n171
*1258 DP_mult_96/n172
*1259 DP_mult_96/n173
*1260 DP_mult_96/n174
*1261 DP_mult_96/n175
*1262 DP_mult_96/n176
*1263 DP_mult_96/n177
*1264 DP_mult_96/n178
*1265 DP_mult_96/n179
*1266 DP_mult_96/n180
*1267 DP_mult_96/n181
*1268 DP_mult_96/n182
*1269 DP_mult_96/n183
*1270 DP_mult_96/n184
*1271 DP_mult_96/n185
*1272 DP_mult_96/n186
*1273 DP_mult_96/n187
*1274 DP_mult_96/n188
*1275 DP_mult_96/n189
*1276 DP_mult_96/n190
*1277 DP_mult_96/n191
*1278 DP_mult_96/n192
*1279 DP_mult_96/n193
*1280 DP_mult_96/n194
*1281 DP_mult_96/n195
*1282 DP_mult_96/n196
*1283 DP_mult_96/n197
*1284 DP_mult_96/n198
*1285 DP_mult_96/n199
*1286 DP_mult_96/n200
*1287 DP_mult_96/n201
*1288 DP_mult_96/n202
*1289 DP_mult_96/n203
*1290 DP_mult_96/n204
*1291 DP_mult_96/n205
*1292 DP_mult_96/n206
*1293 DP_mult_96/n207
*1294 DP_mult_96/n208
*1295 DP_mult_96/n209
*1296 DP_mult_96/n210
*1297 DP_mult_96/n211
*1298 DP_mult_96/n212
*1299 DP_mult_96/n213
*1300 DP_mult_96/n214
*1301 DP_mult_96/n215
*1302 DP_mult_96/n216
*1303 DP_mult_96/n217
*1304 DP_mult_96/n218
*1305 DP_mult_96/n219
*1306 DP_mult_96/n220
*1307 DP_mult_96/n221
*1308 DP_mult_96/n222
*1309 DP_mult_96/n223
*1310 DP_mult_96/n224
*1311 DP_mult_96/n225
*1312 DP_mult_96/n226
*1313 DP_mult_96/n227
*1314 DP_mult_96/n228
*1315 DP_mult_96/n229
*1316 DP_mult_96/n230
*1317 DP_mult_96/n231
*1318 DP_mult_96/n232
*1319 DP_mult_96/n233
*1320 DP_mult_96/n234
*1321 DP_mult_96/n235
*1322 DP_mult_96/n236
*1323 DP_mult_96/n237
*1324 DP_mult_96/n238
*1325 DP_mult_96/n239
*1326 DP_mult_96/n240
*1327 DP_mult_96/n241
*1328 DP_mult_96/n242
*1329 DP_mult_96/n243
*1330 DP_mult_96/n244
*1331 DP_mult_96/n245
*1332 DP_mult_96/n246
*1333 DP_mult_96/n247
*1334 DP_mult_96/n248
*1335 DP_mult_96/n249
*1336 DP_mult_96/n250
*1337 DP_mult_96/n251
*1338 DP_mult_96/n252
*1339 DP_mult_96/n253
*1340 DP_mult_96/n254
*1341 DP_mult_96/n255
*1342 DP_mult_96/n256
*1343 DP_mult_96/n257
*1344 DP_mult_96/n258
*1345 DP_mult_96/n259
*1346 DP_mult_96/n263
*1347 DP_mult_96/n264
*1348 DP_mult_96/n265
*1349 DP_mult_96/n266
*1350 DP_mult_96/n267
*1351 DP_mult_96/n268
*1352 DP_mult_96/n269
*1353 DP_mult_96/n270
*1354 DP_mult_96/n271
*1355 DP_mult_96/n272
*1356 DP_mult_96/n273
*1357 DP_mult_96/n274
*1358 DP_mult_96/n275
*1359 DP_mult_96/n276
*1360 DP_mult_96/n277
*1361 DP_mult_96/n278
*1362 DP_mult_96/n279
*1363 DP_mult_96/n280
*1364 DP_mult_96/n281
*1365 DP_mult_96/n283
*1366 DP_mult_96/n284
*1367 DP_mult_96/n285
*1368 DP_mult_96/n286
*1369 DP_mult_96/n287
*1370 DP_mult_96/n288
*1371 DP_mult_96/n289
*1372 DP_mult_96/n290
*1373 DP_mult_96/n291
*1374 DP_mult_96/n292
*1375 DP_mult_96/n293
*1376 DP_mult_96/n294
*1377 DP_mult_96/n295
*1378 DP_mult_96/n296
*1379 DP_mult_96/n297
*1380 DP_mult_96/n298
*1381 DP_mult_96/n299
*1382 DP_mult_96/n300
*1383 DP_mult_96/n301
*1384 DP_mult_96/n302
*1385 DP_mult_96/n303
*1386 DP_mult_96/n305
*1387 DP_mult_96/n306
*1388 DP_mult_96/n307
*1389 DP_mult_96/n308
*1390 DP_mult_96/n309
*1391 DP_mult_96/n310
*1392 DP_mult_96/n311
*1393 DP_mult_96/n312
*1394 DP_mult_96/n313
*1395 DP_mult_96/n314
*1396 DP_mult_96/n315
*1397 DP_mult_96/n316
*1398 DP_mult_96/n317
*1399 DP_mult_96/n318
*1400 DP_mult_96/n319
*1401 DP_mult_96/n320
*1402 DP_mult_96/n321
*1403 DP_mult_96/n322
*1404 DP_mult_96/n323
*1405 DP_mult_96/n324
*1406 DP_mult_96/n325
*1407 DP_mult_96/n327
*1408 DP_mult_96/n328
*1409 DP_mult_96/n329
*1410 DP_mult_96/n330
*1411 DP_mult_96/n331
*1412 DP_mult_96/n332
*1413 DP_mult_96/n333
*1414 DP_mult_96/n334
*1415 DP_mult_96/n335
*1416 DP_mult_96/n336
*1417 DP_mult_96/n337
*1418 DP_mult_96/n519
*1419 DP_mult_96/n520
*1420 DP_mult_96/n521
*1421 DP_mult_96/n522
*1422 DP_mult_96/n523
*1423 DP_mult_96/n524
*1424 DP_mult_96/n525
*1425 DP_mult_96/n526
*1426 DP_mult_96/n527
*1427 DP_mult_96/n528
*1428 DP_mult_96/n529
*1429 DP_mult_96/n530
*1430 DP_mult_96/n531
*1431 DP_mult_96/n532
*1432 DP_mult_96/n533
*1433 DP_mult_96/n534
*1434 DP_mult_96/n535
*1435 DP_mult_96/n536
*1436 DP_mult_96/n537
*1437 DP_mult_96/n538
*1438 DP_mult_96/n539
*1439 DP_mult_96/n540
*1440 DP_mult_96/n541
*1441 DP_mult_96/n542
*1442 DP_mult_96/n543
*1443 DP_mult_96/n544
*1444 DP_mult_96/n545
*1445 DP_mult_96/n546
*1446 DP_mult_96/n547
*1447 DP_mult_96/n548
*1448 DP_mult_96/n549
*1449 DP_mult_96/n550