*SPEF "IEEE 1481-1998"
*DESIGN "iir_filter"
*DATE "Wed Oct 31 16:50:34 2018"
*VENDOR "Cadence Design Systems, Inc."
*PROGRAM "Innovus"
*VERSION "17.11-s080_1"
*DESIGN_FLOW "COUPLING C" "PIN_CAP NONE" "NAME_SCOPE LOCAL"
*DIVIDER /
*DELIMITER :
*BUS_DELIMITER []
*T_UNIT 1 NS
*C_UNIT 1 PF
*R_UNIT 1 OHM
*L_UNIT 1 HENRY

// MMMC spef file for corner 'my_rc'

*NAME_MAP

*1 FE_OFN7_vIn
*2 FE_OFN6_vIn
*3 FE_OFN5_rst_n
*4 FE_OFN4_rst_n
*5 FE_OFN3_DP_sw0_0
*6 FE_OFN2_DP_w_0
*7 FE_OFN1_sw_out_regs_en_int
*8 FE_OFN0_sw_out_regs_en_int
*9 FE_DBTN1_DP_sw1_0
*10 FE_DBTN0_DP_sw0_0
*11 dIn[11]
*12 dIn[10]
*13 dIn[9]
*14 dIn[8]
*15 dIn[7]
*16 dIn[6]
*17 dIn[5]
*18 dIn[4]
*19 dIn[3]
*20 dIn[2]
*21 dIn[1]
*22 dIn[0]
*23 a[23]
*24 a[22]
*25 a[21]
*26 a[20]
*27 a[19]
*28 a[18]
*29 a[17]
*30 a[16]
*31 a[15]
*32 a[14]
*33 a[13]
*34 a[12]
*35 a[11]
*36 a[10]
*37 a[9]
*38 a[8]
*39 a[7]
*40 a[6]
*41 a[5]
*42 a[4]
*43 a[3]
*44 a[2]
*45 a[1]
*46 a[0]
*47 b[35]
*48 b[34]
*49 b[33]
*50 b[32]
*51 b[31]
*52 b[30]
*53 b[29]
*54 b[28]
*55 b[27]
*56 b[26]
*57 b[25]
*58 b[24]
*59 b[23]
*60 b[22]
*61 b[21]
*62 b[20]
*63 b[19]
*64 b[18]
*65 b[17]
*66 b[16]
*67 b[15]
*68 b[14]
*69 b[13]
*70 b[12]
*71 b[11]
*72 b[10]
*73 b[9]
*74 b[8]
*75 b[7]
*76 b[6]
*77 b[5]
*78 b[4]
*79 b[3]
*80 b[2]
*81 b[1]
*82 b[0]
*83 dOut[11]
*84 dOut[10]
*85 dOut[9]
*86 dOut[8]
*87 dOut[7]
*88 dOut[6]
*89 dOut[5]
*90 dOut[4]
*91 dOut[3]
*92 dOut[2]
*93 dOut[1]
*94 dOut[0]
*95 clk
*96 rst_n
*97 vIn
*98 vOut
*99 sw_out_regs_en_int
*100 DP_n17
*101 DP_n16
*102 DP_n15
*103 DP_n14
*104 DP_n13
*105 DP_n12
*106 DP_n11
*107 DP_n10
*108 DP_n9
*109 DP_n8
*110 DP_n7
*111 DP_n6
*112 DP_n5
*113 DP_n4
*114 DP_fb_0_
*115 DP_fb_10_
*116 DP_fb_11_
*117 DP_fb_12_
*118 DP_fb_1_
*119 DP_fb_2_
*120 DP_fb_3_
*121 DP_fb_4_
*122 DP_fb_5_
*123 DP_fb_6_
*124 DP_fb_7_
*125 DP_fb_8_
*126 DP_fb_9_
*127 DP_ff_0_
*128 DP_ff_10_
*129 DP_ff_11_
*130 DP_ff_12_
*131 DP_ff_1_
*132 DP_ff_2_
*133 DP_ff_3_
*134 DP_ff_4_
*135 DP_ff_5_
*136 DP_ff_6_
*137 DP_ff_7_
*138 DP_ff_8_
*139 DP_ff_9_
*140 DP_w_b0_0_
*141 DP_w_b0_1_
*142 DP_w_b0_2_
*143 DP_w_b0_3_
*144 DP_w_b0_4_
*145 DP_w_b0_5_
*146 DP_w_b0_6_
*147 DP_w_b0_7_
*148 DP_w_b0_8_
*149 DP_w_b0_9_
*150 DP_w_b0_10_
*151 DP_w_b0_11_
*152 DP_sw1_b2_0_
*153 DP_sw1_b2_1_
*154 DP_sw1_b2_2_
*155 DP_sw1_b2_3_
*156 DP_sw1_b2_4_
*157 DP_sw1_b2_5_
*158 DP_sw1_b2_6_
*159 DP_sw1_b2_7_
*160 DP_sw1_b2_8_
*161 DP_sw1_b2_9_
*162 DP_sw1_b2_10_
*163 DP_sw1_b2_11_
*164 DP_sw0_b1_0_
*165 DP_sw0_b1_1_
*166 DP_sw0_b1_2_
*167 DP_sw0_b1_3_
*168 DP_sw0_b1_4_
*169 DP_sw0_b1_5_
*170 DP_sw0_b1_6_
*171 DP_sw0_b1_7_
*172 DP_sw0_b1_8_
*173 DP_sw0_b1_9_
*174 DP_sw0_b1_10_
*175 DP_sw0_b1_11_
*176 DP_sw1_a2_0_
*177 DP_sw1_a2_1_
*178 DP_sw1_a2_2_
*179 DP_sw1_a2_3_
*180 DP_sw1_a2_4_
*181 DP_sw1_a2_5_
*182 DP_sw1_a2_6_
*183 DP_sw1_a2_7_
*184 DP_sw1_a2_8_
*185 DP_sw1_a2_9_
*186 DP_sw1_a2_10_
*187 DP_sw1_a2_11_
*188 DP_sw0_a1_0_
*189 DP_sw0_a1_1_
*190 DP_sw0_a1_2_
*191 DP_sw0_a1_3_
*192 DP_sw0_a1_4_
*193 DP_sw0_a1_5_
*194 DP_sw0_a1_6_
*195 DP_sw0_a1_7_
*196 DP_sw0_a1_8_
*197 DP_sw0_a1_9_
*198 DP_sw0_a1_10_
*199 DP_sw0_a1_11_
*200 DP_y_out_0_
*201 DP_y_out_1_
*202 DP_y_out_2_
*203 DP_y_out_3_
*204 DP_y_out_4_
*205 DP_y_out_5_
*206 DP_y_out_6_
*207 DP_y_out_7_
*208 DP_y_out_8_
*209 DP_y_out_9_
*210 DP_y_out_10_
*211 DP_y_out_11_
*212 DP_sw1_0_
*213 DP_sw1_1_
*214 DP_sw1_2_
*215 DP_sw1_3_
*216 DP_sw1_4_
*217 DP_sw1_5_
*218 DP_sw1_6_
*219 DP_sw1_7_
*220 DP_sw1_8_
*221 DP_sw1_9_
*222 DP_sw1_10_
*223 DP_sw1_11_
*224 DP_sw1_12_
*225 DP_sw0_0_
*226 DP_sw0_1_
*227 DP_sw0_2_
*228 DP_sw0_3_
*229 DP_sw0_4_
*230 DP_sw0_5_
*231 DP_sw0_6_
*232 DP_sw0_7_
*233 DP_sw0_8_
*234 DP_sw0_9_
*235 DP_sw0_10_
*236 DP_sw0_11_
*237 DP_sw0_12_
*238 DP_w_0_
*239 DP_w_1_
*240 DP_w_2_
*241 DP_w_3_
*242 DP_w_4_
*243 DP_w_5_
*244 DP_w_6_
*245 DP_w_7_
*246 DP_w_8_
*247 DP_w_9_
*248 DP_w_10_
*249 DP_w_11_
*250 DP_w_12_
*251 DP_x_0_
*252 DP_x_1_
*253 DP_x_2_
*254 DP_x_3_
*255 DP_x_4_
*256 DP_x_5_
*257 DP_x_6_
*258 DP_x_7_
*259 DP_x_8_
*260 DP_x_9_
*261 DP_x_10_
*262 DP_x_11_
*263 DP_reg_in_n36
*264 DP_reg_in_n35
*265 DP_reg_in_n34
*266 DP_reg_in_n33
*267 DP_reg_in_n32
*268 DP_reg_in_n31
*269 DP_reg_in_n30
*270 DP_reg_in_n29
*271 DP_reg_in_n28
*272 DP_reg_in_n27
*273 DP_reg_in_n26
*274 DP_reg_in_n25
*275 DP_reg_in_n24
*276 DP_reg_in_n23
*277 DP_reg_in_n22
*278 DP_reg_in_n21
*279 DP_reg_in_n20
*280 DP_reg_in_n19
*281 DP_reg_in_n18
*282 DP_reg_in_n17
*283 DP_reg_in_n16
*284 DP_reg_in_n15
*285 DP_reg_in_n14
*286 DP_reg_in_n13
*287 DP_reg_in_n12
*288 DP_reg_in_n11
*289 DP_reg_in_n10
*290 DP_reg_in_n9
*291 DP_reg_in_n8
*292 DP_reg_in_n7
*293 DP_reg_in_n6
*294 DP_reg_in_n5
*295 DP_reg_in_n4
*296 DP_reg_in_n3
*297 DP_reg_in_n2
*298 DP_reg_in_n1
*299 DP_reg_a_i_1_n74
*300 DP_reg_a_i_1_n73
*301 DP_reg_a_i_1_n72
*302 DP_reg_a_i_1_n71
*303 DP_reg_a_i_1_n70
*304 DP_reg_a_i_1_n69
*305 DP_reg_a_i_1_n68
*306 DP_reg_a_i_1_n67
*307 DP_reg_a_i_1_n66
*308 DP_reg_a_i_1_n65
*309 DP_reg_a_i_1_n64
*310 DP_reg_a_i_1_n63
*311 DP_reg_a_i_1_n62
*312 DP_reg_a_i_1_n61
*313 DP_reg_a_i_1_n60
*314 DP_reg_a_i_1_n59
*315 DP_reg_a_i_1_n58
*316 DP_reg_a_i_1_n57
*317 DP_reg_a_i_1_n56
*318 DP_reg_a_i_1_n55
*319 DP_reg_a_i_1_n54
*320 DP_reg_a_i_1_n53
*321 DP_reg_a_i_1_n52
*322 DP_reg_a_i_1_n51
*323 DP_reg_a_i_1_n50
*324 DP_reg_a_i_1_n49
*325 DP_reg_a_i_1_n48
*326 DP_reg_a_i_1_n47
*327 DP_reg_a_i_1_n46
*328 DP_reg_a_i_1_n45
*329 DP_reg_a_i_1_n44
*330 DP_reg_a_i_1_n43
*331 DP_reg_a_i_1_n42
*332 DP_reg_a_i_1_n41
*333 DP_reg_a_i_1_n40
*334 DP_reg_a_i_1_n39
*335 DP_reg_a_i_2_n74
*336 DP_reg_a_i_2_n73
*337 DP_reg_a_i_2_n72
*338 DP_reg_a_i_2_n71
*339 DP_reg_a_i_2_n70
*340 DP_reg_a_i_2_n69
*341 DP_reg_a_i_2_n68
*342 DP_reg_a_i_2_n67
*343 DP_reg_a_i_2_n66
*344 DP_reg_a_i_2_n65
*345 DP_reg_a_i_2_n64
*346 DP_reg_a_i_2_n63
*347 DP_reg_a_i_2_n62
*348 DP_reg_a_i_2_n61
*349 DP_reg_a_i_2_n60
*350 DP_reg_a_i_2_n59
*351 DP_reg_a_i_2_n58
*352 DP_reg_a_i_2_n57
*353 DP_reg_a_i_2_n56
*354 DP_reg_a_i_2_n55
*355 DP_reg_a_i_2_n54
*356 DP_reg_a_i_2_n53
*357 DP_reg_a_i_2_n52
*358 DP_reg_a_i_2_n51
*359 DP_reg_a_i_2_n50
*360 DP_reg_a_i_2_n49
*361 DP_reg_a_i_2_n48
*362 DP_reg_a_i_2_n47
*363 DP_reg_a_i_2_n46
*364 DP_reg_a_i_2_n45
*365 DP_reg_a_i_2_n44
*366 DP_reg_a_i_2_n43
*367 DP_reg_a_i_2_n42
*368 DP_reg_a_i_2_n41
*369 DP_reg_a_i_2_n40
*370 DP_reg_a_i_2_n39
*371 DP_reg_b_i_0_n74
*372 DP_reg_b_i_0_n73
*373 DP_reg_b_i_0_n72
*374 DP_reg_b_i_0_n71
*375 DP_reg_b_i_0_n70
*376 DP_reg_b_i_0_n69
*377 DP_reg_b_i_0_n68
*378 DP_reg_b_i_0_n67
*379 DP_reg_b_i_0_n66
*380 DP_reg_b_i_0_n65
*381 DP_reg_b_i_0_n64
*382 DP_reg_b_i_0_n63
*383 DP_reg_b_i_0_n62
*384 DP_reg_b_i_0_n61
*385 DP_reg_b_i_0_n60
*386 DP_reg_b_i_0_n59
*387 DP_reg_b_i_0_n58
*388 DP_reg_b_i_0_n57
*389 DP_reg_b_i_0_n56
*390 DP_reg_b_i_0_n55
*391 DP_reg_b_i_0_n54
*392 DP_reg_b_i_0_n53
*393 DP_reg_b_i_0_n52
*394 DP_reg_b_i_0_n51
*395 DP_reg_b_i_0_n50
*396 DP_reg_b_i_0_n49
*397 DP_reg_b_i_0_n48
*398 DP_reg_b_i_0_n47
*399 DP_reg_b_i_0_n46
*400 DP_reg_b_i_0_n45
*401 DP_reg_b_i_0_n44
*402 DP_reg_b_i_0_n43
*403 DP_reg_b_i_0_n42
*404 DP_reg_b_i_0_n41
*405 DP_reg_b_i_0_n40
*406 DP_reg_b_i_0_n39
*407 DP_reg_b_i_1_n74
*408 DP_reg_b_i_1_n73
*409 DP_reg_b_i_1_n72
*410 DP_reg_b_i_1_n71
*411 DP_reg_b_i_1_n70
*412 DP_reg_b_i_1_n69
*413 DP_reg_b_i_1_n68
*414 DP_reg_b_i_1_n67
*415 DP_reg_b_i_1_n66
*416 DP_reg_b_i_1_n65
*417 DP_reg_b_i_1_n64
*418 DP_reg_b_i_1_n63
*419 DP_reg_b_i_1_n62
*420 DP_reg_b_i_1_n61
*421 DP_reg_b_i_1_n60
*422 DP_reg_b_i_1_n59
*423 DP_reg_b_i_1_n58
*424 DP_reg_b_i_1_n57
*425 DP_reg_b_i_1_n56
*426 DP_reg_b_i_1_n55
*427 DP_reg_b_i_1_n54
*428 DP_reg_b_i_1_n53
*429 DP_reg_b_i_1_n52
*430 DP_reg_b_i_1_n51
*431 DP_reg_b_i_1_n50
*432 DP_reg_b_i_1_n49
*433 DP_reg_b_i_1_n48
*434 DP_reg_b_i_1_n47
*435 DP_reg_b_i_1_n46
*436 DP_reg_b_i_1_n45
*437 DP_reg_b_i_1_n44
*438 DP_reg_b_i_1_n43
*439 DP_reg_b_i_1_n42
*440 DP_reg_b_i_1_n41
*441 DP_reg_b_i_1_n40
*442 DP_reg_b_i_1_n39
*443 DP_reg_b_i_2_n74
*444 DP_reg_b_i_2_n73
*445 DP_reg_b_i_2_n72
*446 DP_reg_b_i_2_n71
*447 DP_reg_b_i_2_n70
*448 DP_reg_b_i_2_n69
*449 DP_reg_b_i_2_n68
*450 DP_reg_b_i_2_n67
*451 DP_reg_b_i_2_n66
*452 DP_reg_b_i_2_n65
*453 DP_reg_b_i_2_n64
*454 DP_reg_b_i_2_n63
*455 DP_reg_b_i_2_n62
*456 DP_reg_b_i_2_n61
*457 DP_reg_b_i_2_n60
*458 DP_reg_b_i_2_n59
*459 DP_reg_b_i_2_n58
*460 DP_reg_b_i_2_n57
*461 DP_reg_b_i_2_n56
*462 DP_reg_b_i_2_n55
*463 DP_reg_b_i_2_n54
*464 DP_reg_b_i_2_n53
*465 DP_reg_b_i_2_n52
*466 DP_reg_b_i_2_n51
*467 DP_reg_b_i_2_n50
*468 DP_reg_b_i_2_n49
*469 DP_reg_b_i_2_n48
*470 DP_reg_b_i_2_n47
*471 DP_reg_b_i_2_n46
*472 DP_reg_b_i_2_n45
*473 DP_reg_b_i_2_n44
*474 DP_reg_b_i_2_n43
*475 DP_reg_b_i_2_n42
*476 DP_reg_b_i_2_n41
*477 DP_reg_b_i_2_n40
*478 DP_reg_b_i_2_n39
*479 DP_reg_sw0_n39
*480 DP_reg_sw0_n38
*481 DP_reg_sw0_n37
*482 DP_reg_sw0_n36
*483 DP_reg_sw0_n35
*484 DP_reg_sw0_n34
*485 DP_reg_sw0_n33
*486 DP_reg_sw0_n32
*487 DP_reg_sw0_n31
*488 DP_reg_sw0_n30
*489 DP_reg_sw0_n29
*490 DP_reg_sw0_n28
*491 DP_reg_sw0_n27
*492 DP_reg_sw0_n26
*493 DP_reg_sw0_n25
*494 DP_reg_sw0_n24
*495 DP_reg_sw0_n23
*496 DP_reg_sw0_n22
*497 DP_reg_sw0_n21
*498 DP_reg_sw0_n20
*499 DP_reg_sw0_n19
*500 DP_reg_sw0_n18
*501 DP_reg_sw0_n17
*502 DP_reg_sw0_n16
*503 DP_reg_sw0_n15
*504 DP_reg_sw0_n14
*505 DP_reg_sw0_n13
*506 DP_reg_sw0_n12
*507 DP_reg_sw0_n11
*508 DP_reg_sw0_n10
*509 DP_reg_sw0_n9
*510 DP_reg_sw0_n8
*511 DP_reg_sw0_n7
*512 DP_reg_sw0_n6
*513 DP_reg_sw0_n5
*514 DP_reg_sw0_n4
*515 DP_reg_sw0_n3
*516 DP_reg_sw0_n2
*517 DP_reg_sw0_n1
*518 DP_reg_sw1_n80
*519 DP_reg_sw1_n79
*520 DP_reg_sw1_n78
*521 DP_reg_sw1_n77
*522 DP_reg_sw1_n76
*523 DP_reg_sw1_n75
*524 DP_reg_sw1_n74
*525 DP_reg_sw1_n73
*526 DP_reg_sw1_n72
*527 DP_reg_sw1_n71
*528 DP_reg_sw1_n70
*529 DP_reg_sw1_n69
*530 DP_reg_sw1_n68
*531 DP_reg_sw1_n67
*532 DP_reg_sw1_n66
*533 DP_reg_sw1_n65
*534 DP_reg_sw1_n64
*535 DP_reg_sw1_n63
*536 DP_reg_sw1_n62
*537 DP_reg_sw1_n61
*538 DP_reg_sw1_n60
*539 DP_reg_sw1_n59
*540 DP_reg_sw1_n58
*541 DP_reg_sw1_n57
*542 DP_reg_sw1_n56
*543 DP_reg_sw1_n55
*544 DP_reg_sw1_n54
*545 DP_reg_sw1_n53
*546 DP_reg_sw1_n52
*547 DP_reg_sw1_n51
*548 DP_reg_sw1_n50
*549 DP_reg_sw1_n49
*550 DP_reg_sw1_n48
*551 DP_reg_sw1_n47
*552 DP_reg_sw1_n46
*553 DP_reg_sw1_n45
*554 DP_reg_sw1_n44
*555 DP_reg_sw1_n43
*556 DP_reg_sw1_n42
*557 DP_reg_out_n74
*558 DP_reg_out_n73
*559 DP_reg_out_n72
*560 DP_reg_out_n71
*561 DP_reg_out_n70
*562 DP_reg_out_n69
*563 DP_reg_out_n68
*564 DP_reg_out_n67
*565 DP_reg_out_n66
*566 DP_reg_out_n65
*567 DP_reg_out_n64
*568 DP_reg_out_n63
*569 DP_reg_out_n62
*570 DP_reg_out_n61
*571 DP_reg_out_n60
*572 DP_reg_out_n59
*573 DP_reg_out_n58
*574 DP_reg_out_n57
*575 DP_reg_out_n56
*576 DP_reg_out_n55
*577 DP_reg_out_n54
*578 DP_reg_out_n53
*579 DP_reg_out_n52
*580 DP_reg_out_n51
*581 DP_reg_out_n50
*582 DP_reg_out_n49
*583 DP_reg_out_n48
*584 DP_reg_out_n47
*585 DP_reg_out_n46
*586 DP_reg_out_n45
*587 DP_reg_out_n44
*588 DP_reg_out_n43
*589 DP_reg_out_n42
*590 DP_reg_out_n41
*591 DP_reg_out_n40
*592 DP_reg_out_n39
*593 DP_add_1_root_add_0_root_add_107_carry_1_
*594 DP_add_1_root_add_0_root_add_107_carry_2_
*595 DP_add_1_root_add_0_root_add_107_carry_3_
*596 DP_add_1_root_add_0_root_add_107_carry_4_
*597 DP_add_1_root_add_0_root_add_107_carry_5_
*598 DP_add_1_root_add_0_root_add_107_carry_6_
*599 DP_add_1_root_add_0_root_add_107_carry_7_
*600 DP_add_1_root_add_0_root_add_107_carry_8_
*601 DP_add_1_root_add_0_root_add_107_carry_9_
*602 DP_add_1_root_add_0_root_add_107_carry_10_
*603 DP_add_1_root_add_0_root_add_107_carry_11_
*604 DP_add_1_root_add_0_root_add_107_carry_12_
*605 DP_add_0_root_add_0_root_add_107_carry_1_
*606 DP_add_0_root_add_0_root_add_107_carry_2_
*607 DP_add_0_root_add_0_root_add_107_carry_3_
*608 DP_add_0_root_add_0_root_add_107_carry_4_
*609 DP_add_0_root_add_0_root_add_107_carry_5_
*610 DP_add_0_root_add_0_root_add_107_carry_6_
*611 DP_add_0_root_add_0_root_add_107_carry_7_
*612 DP_add_0_root_add_0_root_add_107_carry_8_
*613 DP_add_0_root_add_0_root_add_107_carry_9_
*614 DP_add_0_root_add_0_root_add_107_carry_10_
*615 DP_add_0_root_add_0_root_add_107_carry_11_
*616 DP_add_0_root_add_0_root_add_107_carry_12_
*617 DP_mult_105_n660
*618 DP_mult_105_n659
*619 DP_mult_105_n658
*620 DP_mult_105_n657
*621 DP_mult_105_n656
*622 DP_mult_105_n655
*623 DP_mult_105_n654
*624 DP_mult_105_n653
*625 DP_mult_105_n652
*626 DP_mult_105_n651
*627 DP_mult_105_n650
*628 DP_mult_105_n649
*629 DP_mult_105_n648
*630 DP_mult_105_n647
*631 DP_mult_105_n646
*632 DP_mult_105_n645
*633 DP_mult_105_n644
*634 DP_mult_105_n643
*635 DP_mult_105_n642
*636 DP_mult_105_n641
*637 DP_mult_105_n640
*638 DP_mult_105_n639
*639 DP_mult_105_n638
*640 DP_mult_105_n637
*641 DP_mult_105_n636
*642 DP_mult_105_n635
*643 DP_mult_105_n634
*644 DP_mult_105_n633
*645 DP_mult_105_n632
*646 DP_mult_105_n631
*647 DP_mult_105_n630
*648 DP_mult_105_n629
*649 DP_mult_105_n628
*650 DP_mult_105_n627
*651 DP_mult_105_n626
*652 DP_mult_105_n625
*653 DP_mult_105_n624
*654 DP_mult_105_n623
*655 DP_mult_105_n622
*656 DP_mult_105_n621
*657 DP_mult_105_n620
*658 DP_mult_105_n619
*659 DP_mult_105_n618
*660 DP_mult_105_n617
*661 DP_mult_105_n616
*662 DP_mult_105_n615
*663 DP_mult_105_n614
*664 DP_mult_105_n613
*665 DP_mult_105_n612
*666 DP_mult_105_n611
*667 DP_mult_105_n610
*668 DP_mult_105_n609
*669 DP_mult_105_n608
*670 DP_mult_105_n607
*671 DP_mult_105_n606
*672 DP_mult_105_n605
*673 DP_mult_105_n604
*674 DP_mult_105_n603
*675 DP_mult_105_n602
*676 DP_mult_105_n601
*677 DP_mult_105_n600
*678 DP_mult_105_n599
*679 DP_mult_105_n598
*680 DP_mult_105_n597
*681 DP_mult_105_n596
*682 DP_mult_105_n595
*683 DP_mult_105_n594
*684 DP_mult_105_n593
*685 DP_mult_105_n592
*686 DP_mult_105_n591
*687 DP_mult_105_n590
*688 DP_mult_105_n589
*689 DP_mult_105_n588
*690 DP_mult_105_n587
*691 DP_mult_105_n586
*692 DP_mult_105_n585
*693 DP_mult_105_n584
*694 DP_mult_105_n583
*695 DP_mult_105_n582
*696 DP_mult_105_n581
*697 DP_mult_105_n580
*698 DP_mult_105_n579
*699 DP_mult_105_n578
*700 DP_mult_105_n577
*701 DP_mult_105_n576
*702 DP_mult_105_n575
*703 DP_mult_105_n574
*704 DP_mult_105_n573
*705 DP_mult_105_n572
*706 DP_mult_105_n571
*707 DP_mult_105_n570
*708 DP_mult_105_n569
*709 DP_mult_105_n568
*710 DP_mult_105_n567
*711 DP_mult_105_n566
*712 DP_mult_105_n565
*713 DP_mult_105_n564
*714 DP_mult_105_n563
*715 DP_mult_105_n562
*716 DP_mult_105_n561
*717 DP_mult_105_n560
*718 DP_mult_105_n559
*719 DP_mult_105_n558
*720 DP_mult_105_n557
*721 DP_mult_105_n556
*722 DP_mult_105_n555
*723 DP_mult_105_n554
*724 DP_mult_105_n553
*725 DP_mult_105_n552
*726 DP_mult_105_n551
*727 DP_mult_105_n550
*728 DP_mult_105_n549
*729 DP_mult_105_n548
*730 DP_mult_105_n547
*731 DP_mult_105_n546
*732 DP_mult_105_n545
*733 DP_mult_105_n544
*734 DP_mult_105_n543
*735 DP_mult_105_n542
*736 DP_mult_105_n541
*737 DP_mult_105_n540
*738 DP_mult_105_n539
*739 DP_mult_105_n538
*740 DP_mult_105_n537
*741 DP_mult_105_n536
*742 DP_mult_105_n535
*743 DP_mult_105_n534
*744 DP_mult_105_n533
*745 DP_mult_105_n532
*746 DP_mult_105_n531
*747 DP_mult_105_n530
*748 DP_mult_105_n529
*749 DP_mult_105_n528
*750 DP_mult_105_n527
*751 DP_mult_105_n526
*752 DP_mult_105_n525
*753 DP_mult_105_n524
*754 DP_mult_105_n523
*755 DP_mult_105_n522
*756 DP_mult_105_n521
*757 DP_mult_105_n520
*758 DP_mult_105_n519
*759 DP_mult_105_n337
*760 DP_mult_105_n336
*761 DP_mult_105_n335
*762 DP_mult_105_n334
*763 DP_mult_105_n333
*764 DP_mult_105_n332
*765 DP_mult_105_n331
*766 DP_mult_105_n330
*767 DP_mult_105_n329
*768 DP_mult_105_n328
*769 DP_mult_105_n327
*770 DP_mult_105_n325
*771 DP_mult_105_n324
*772 DP_mult_105_n323
*773 DP_mult_105_n322
*774 DP_mult_105_n321
*775 DP_mult_105_n320
*776 DP_mult_105_n319
*777 DP_mult_105_n318
*778 DP_mult_105_n317
*779 DP_mult_105_n316
*780 DP_mult_105_n315
*781 DP_mult_105_n314
*782 DP_mult_105_n313
*783 DP_mult_105_n312
*784 DP_mult_105_n311
*785 DP_mult_105_n310
*786 DP_mult_105_n309
*787 DP_mult_105_n308
*788 DP_mult_105_n307
*789 DP_mult_105_n306
*790 DP_mult_105_n305
*791 DP_mult_105_n303
*792 DP_mult_105_n302
*793 DP_mult_105_n301
*794 DP_mult_105_n300
*795 DP_mult_105_n299
*796 DP_mult_105_n298
*797 DP_mult_105_n297
*798 DP_mult_105_n296
*799 DP_mult_105_n295
*800 DP_mult_105_n294
*801 DP_mult_105_n293
*802 DP_mult_105_n292
*803 DP_mult_105_n291
*804 DP_mult_105_n290
*805 DP_mult_105_n289
*806 DP_mult_105_n288
*807 DP_mult_105_n287
*808 DP_mult_105_n286
*809 DP_mult_105_n285
*810 DP_mult_105_n284
*811 DP_mult_105_n283
*812 DP_mult_105_n281
*813 DP_mult_105_n280
*814 DP_mult_105_n279
*815 DP_mult_105_n278
*816 DP_mult_105_n277
*817 DP_mult_105_n276
*818 DP_mult_105_n275
*819 DP_mult_105_n274
*820 DP_mult_105_n273
*821 DP_mult_105_n272
*822 DP_mult_105_n271
*823 DP_mult_105_n270
*824 DP_mult_105_n269
*825 DP_mult_105_n268
*826 DP_mult_105_n267
*827 DP_mult_105_n266
*828 DP_mult_105_n265
*829 DP_mult_105_n264
*830 DP_mult_105_n263
*831 DP_mult_105_n259
*832 DP_mult_105_n258
*833 DP_mult_105_n257
*834 DP_mult_105_n256
*835 DP_mult_105_n255
*836 DP_mult_105_n254
*837 DP_mult_105_n253
*838 DP_mult_105_n252
*839 DP_mult_105_n251
*840 DP_mult_105_n250
*841 DP_mult_105_n249
*842 DP_mult_105_n248
*843 DP_mult_105_n247
*844 DP_mult_105_n246
*845 DP_mult_105_n245
*846 DP_mult_105_n244
*847 DP_mult_105_n243
*848 DP_mult_105_n242
*849 DP_mult_105_n241
*850 DP_mult_105_n240
*851 DP_mult_105_n239
*852 DP_mult_105_n238
*853 DP_mult_105_n237
*854 DP_mult_105_n236
*855 DP_mult_105_n235
*856 DP_mult_105_n234
*857 DP_mult_105_n233
*858 DP_mult_105_n232
*859 DP_mult_105_n231
*860 DP_mult_105_n230
*861 DP_mult_105_n229
*862 DP_mult_105_n228
*863 DP_mult_105_n227
*864 DP_mult_105_n226
*865 DP_mult_105_n225
*866 DP_mult_105_n224
*867 DP_mult_105_n223
*868 DP_mult_105_n222
*869 DP_mult_105_n221
*870 DP_mult_105_n220
*871 DP_mult_105_n219
*872 DP_mult_105_n218
*873 DP_mult_105_n217
*874 DP_mult_105_n216
*875 DP_mult_105_n215
*876 DP_mult_105_n214
*877 DP_mult_105_n213
*878 DP_mult_105_n212
*879 DP_mult_105_n211
*880 DP_mult_105_n210
*881 DP_mult_105_n209
*882 DP_mult_105_n208
*883 DP_mult_105_n207
*884 DP_mult_105_n206
*885 DP_mult_105_n205
*886 DP_mult_105_n204
*887 DP_mult_105_n203
*888 DP_mult_105_n202
*889 DP_mult_105_n201
*890 DP_mult_105_n200
*891 DP_mult_105_n199
*892 DP_mult_105_n198
*893 DP_mult_105_n197
*894 DP_mult_105_n196
*895 DP_mult_105_n195
*896 DP_mult_105_n194
*897 DP_mult_105_n193
*898 DP_mult_105_n192
*899 DP_mult_105_n191
*900 DP_mult_105_n190
*901 DP_mult_105_n189
*902 DP_mult_105_n188
*903 DP_mult_105_n187
*904 DP_mult_105_n186
*905 DP_mult_105_n185
*906 DP_mult_105_n184
*907 DP_mult_105_n183
*908 DP_mult_105_n182
*909 DP_mult_105_n181
*910 DP_mult_105_n180
*911 DP_mult_105_n179
*912 DP_mult_105_n178
*913 DP_mult_105_n177
*914 DP_mult_105_n176
*915 DP_mult_105_n175
*916 DP_mult_105_n174
*917 DP_mult_105_n173
*918 DP_mult_105_n172
*919 DP_mult_105_n171
*920 DP_mult_105_n170
*921 DP_mult_105_n169
*922 DP_mult_105_n168
*923 DP_mult_105_n167
*924 DP_mult_105_n166
*925 DP_mult_105_n165
*926 DP_mult_105_n164
*927 DP_mult_105_n163
*928 DP_mult_105_n162
*929 DP_mult_105_n161
*930 DP_mult_105_n160
*931 DP_mult_105_n159
*932 DP_mult_105_n158
*933 DP_mult_105_n157
*934 DP_mult_105_n156
*935 DP_mult_105_n155
*936 DP_mult_105_n154
*937 DP_mult_105_n153
*938 DP_mult_105_n152
*939 DP_mult_105_n151
*940 DP_mult_105_n150
*941 DP_mult_105_n149
*942 DP_mult_105_n148
*943 DP_mult_105_n147
*944 DP_mult_105_n146
*945 DP_mult_105_n145
*946 DP_mult_105_n144
*947 DP_mult_105_n143
*948 DP_mult_105_n142
*949 DP_mult_105_n141
*950 DP_mult_105_n140
*951 DP_mult_105_n139
*952 DP_mult_105_n138
*953 DP_mult_105_n126
*954 DP_mult_105_n125
*955 DP_mult_105_n124
*956 DP_mult_105_n123
*957 DP_mult_105_n122
*958 DP_mult_105_n121
*959 DP_mult_105_n120
*960 DP_mult_105_n119
*961 DP_mult_105_n118
*962 DP_mult_105_n117
*963 DP_mult_105_n116
*964 DP_mult_105_n115
*965 DP_sub_1_root_sub_0_root_sub_104_B_not_0_
*966 DP_sub_1_root_sub_0_root_sub_104_B_not_1_
*967 DP_sub_1_root_sub_0_root_sub_104_B_not_2_
*968 DP_sub_1_root_sub_0_root_sub_104_B_not_3_
*969 DP_sub_1_root_sub_0_root_sub_104_B_not_4_
*970 DP_sub_1_root_sub_0_root_sub_104_B_not_5_
*971 DP_sub_1_root_sub_0_root_sub_104_B_not_6_
*972 DP_sub_1_root_sub_0_root_sub_104_B_not_7_
*973 DP_sub_1_root_sub_0_root_sub_104_B_not_8_
*974 DP_sub_1_root_sub_0_root_sub_104_B_not_9_
*975 DP_sub_1_root_sub_0_root_sub_104_B_not_10_
*976 DP_sub_1_root_sub_0_root_sub_104_B_not_12_
*977 DP_sub_1_root_sub_0_root_sub_104_carry_1_
*978 DP_sub_1_root_sub_0_root_sub_104_carry_2_
*979 DP_sub_1_root_sub_0_root_sub_104_carry_3_
*980 DP_sub_1_root_sub_0_root_sub_104_carry_4_
*981 DP_sub_1_root_sub_0_root_sub_104_carry_5_
*982 DP_sub_1_root_sub_0_root_sub_104_carry_6_
*983 DP_sub_1_root_sub_0_root_sub_104_carry_7_
*984 DP_sub_1_root_sub_0_root_sub_104_carry_8_
*985 DP_sub_1_root_sub_0_root_sub_104_carry_9_
*986 DP_sub_1_root_sub_0_root_sub_104_carry_10_
*987 DP_sub_1_root_sub_0_root_sub_104_carry_11_
*988 DP_sub_1_root_sub_0_root_sub_104_carry_12_
*989 DP_sub_0_root_sub_0_root_sub_104_B_not_0_
*990 DP_sub_0_root_sub_0_root_sub_104_B_not_1_
*991 DP_sub_0_root_sub_0_root_sub_104_B_not_2_
*992 DP_sub_0_root_sub_0_root_sub_104_B_not_3_
*993 DP_sub_0_root_sub_0_root_sub_104_B_not_4_
*994 DP_sub_0_root_sub_0_root_sub_104_B_not_5_
*995 DP_sub_0_root_sub_0_root_sub_104_B_not_6_
*996 DP_sub_0_root_sub_0_root_sub_104_B_not_7_
*997 DP_sub_0_root_sub_0_root_sub_104_B_not_8_
*998 DP_sub_0_root_sub_0_root_sub_104_B_not_9_
*999 DP_sub_0_root_sub_0_root_sub_104_B_not_10_
*1000 DP_sub_0_root_sub_0_root_sub_104_B_not_12_
*1001 DP_sub_0_root_sub_0_root_sub_104_carry_1_
*1002 DP_sub_0_root_sub_0_root_sub_104_carry_2_
*1003 DP_sub_0_root_sub_0_root_sub_104_carry_3_
*1004 DP_sub_0_root_sub_0_root_sub_104_carry_4_
*1005 DP_sub_0_root_sub_0_root_sub_104_carry_5_
*1006 DP_sub_0_root_sub_0_root_sub_104_carry_6_
*1007 DP_sub_0_root_sub_0_root_sub_104_carry_7_
*1008 DP_sub_0_root_sub_0_root_sub_104_carry_8_
*1009 DP_sub_0_root_sub_0_root_sub_104_carry_9_
*1010 DP_sub_0_root_sub_0_root_sub_104_carry_10_
*1011 DP_sub_0_root_sub_0_root_sub_104_carry_11_
*1012 DP_sub_0_root_sub_0_root_sub_104_carry_12_
*1013 DP_mult_97_n660
*1014 DP_mult_97_n659
*1015 DP_mult_97_n658
*1016 DP_mult_97_n657
*1017 DP_mult_97_n656
*1018 DP_mult_97_n655
*1019 DP_mult_97_n654
*1020 DP_mult_97_n653
*1021 DP_mult_97_n652
*1022 DP_mult_97_n651
*1023 DP_mult_97_n650
*1024 DP_mult_97_n649
*1025 DP_mult_97_n648
*1026 DP_mult_97_n647
*1027 DP_mult_97_n646
*1028 DP_mult_97_n645
*1029 DP_mult_97_n644
*1030 DP_mult_97_n643
*1031 DP_mult_97_n642
*1032 DP_mult_97_n641
*1033 DP_mult_97_n640
*1034 DP_mult_97_n639
*1035 DP_mult_97_n638
*1036 DP_mult_97_n637
*1037 DP_mult_97_n636
*1038 DP_mult_97_n635
*1039 DP_mult_97_n634
*1040 DP_mult_97_n633
*1041 DP_mult_97_n632
*1042 DP_mult_97_n631
*1043 DP_mult_97_n630
*1044 DP_mult_97_n629
*1045 DP_mult_97_n628
*1046 DP_mult_97_n627
*1047 DP_mult_97_n626
*1048 DP_mult_97_n625
*1049 DP_mult_97_n624
*1050 DP_mult_97_n623
*1051 DP_mult_97_n622
*1052 DP_mult_97_n621
*1053 DP_mult_97_n620
*1054 DP_mult_97_n619
*1055 DP_mult_97_n618
*1056 DP_mult_97_n617
*1057 DP_mult_97_n616
*1058 DP_mult_97_n615
*1059 DP_mult_97_n614
*1060 DP_mult_97_n613
*1061 DP_mult_97_n612
*1062 DP_mult_97_n611
*1063 DP_mult_97_n610
*1064 DP_mult_97_n609
*1065 DP_mult_97_n608
*1066 DP_mult_97_n607
*1067 DP_mult_97_n606
*1068 DP_mult_97_n605
*1069 DP_mult_97_n604
*1070 DP_mult_97_n603
*1071 DP_mult_97_n602
*1072 DP_mult_97_n601
*1073 DP_mult_97_n600
*1074 DP_mult_97_n599
*1075 DP_mult_97_n598
*1076 DP_mult_97_n597
*1077 DP_mult_97_n596
*1078 DP_mult_97_n595
*1079 DP_mult_97_n594
*1080 DP_mult_97_n593
*1081 DP_mult_97_n592
*1082 DP_mult_97_n591
*1083 DP_mult_97_n590
*1084 DP_mult_97_n589
*1085 DP_mult_97_n588
*1086 DP_mult_97_n587
*1087 DP_mult_97_n586
*1088 DP_mult_97_n585
*1089 DP_mult_97_n584
*1090 DP_mult_97_n583
*1091 DP_mult_97_n582
*1092 DP_mult_97_n581
*1093 DP_mult_97_n580
*1094 DP_mult_97_n579
*1095 DP_mult_97_n578
*1096 DP_mult_97_n577
*1097 DP_mult_97_n576
*1098 DP_mult_97_n575
*1099 DP_mult_97_n574
*1100 DP_mult_97_n573
*1101 DP_mult_97_n572
*1102 DP_mult_97_n571
*1103 DP_mult_97_n570
*1104 DP_mult_97_n569
*1105 DP_mult_97_n568
*1106 DP_mult_97_n567
*1107 DP_mult_97_n566
*1108 DP_mult_97_n565
*1109 DP_mult_97_n564
*1110 DP_mult_97_n563
*1111 DP_mult_97_n562
*1112 DP_mult_97_n561
*1113 DP_mult_97_n559
*1114 DP_mult_97_n558
*1115 DP_mult_97_n557
*1116 DP_mult_97_n556
*1117 DP_mult_97_n555
*1118 DP_mult_97_n554
*1119 DP_mult_97_n553
*1120 DP_mult_97_n552
*1121 DP_mult_97_n551
*1122 DP_mult_97_n550
*1123 DP_mult_97_n549
*1124 DP_mult_97_n548
*1125 DP_mult_97_n547
*1126 DP_mult_97_n546
*1127 DP_mult_97_n545
*1128 DP_mult_97_n544
*1129 DP_mult_97_n543
*1130 DP_mult_97_n542
*1131 DP_mult_97_n541
*1132 DP_mult_97_n540
*1133 DP_mult_97_n539
*1134 DP_mult_97_n538
*1135 DP_mult_97_n537
*1136 DP_mult_97_n536
*1137 DP_mult_97_n535
*1138 DP_mult_97_n534
*1139 DP_mult_97_n533
*1140 DP_mult_97_n532
*1141 DP_mult_97_n531
*1142 DP_mult_97_n530
*1143 DP_mult_97_n529
*1144 DP_mult_97_n528
*1145 DP_mult_97_n527
*1146 DP_mult_97_n526
*1147 DP_mult_97_n525
*1148 DP_mult_97_n524
*1149 DP_mult_97_n523
*1150 DP_mult_97_n522
*1151 DP_mult_97_n521
*1152 DP_mult_97_n520
*1153 DP_mult_97_n519
*1154 DP_mult_97_n337
*1155 DP_mult_97_n336
*1156 DP_mult_97_n335
*1157 DP_mult_97_n334
*1158 DP_mult_97_n333
*1159 DP_mult_97_n332
*1160 DP_mult_97_n331
*1161 DP_mult_97_n330
*1162 DP_mult_97_n329
*1163 DP_mult_97_n328
*1164 DP_mult_97_n327
*1165 DP_mult_97_n325
*1166 DP_mult_97_n324
*1167 DP_mult_97_n323
*1168 DP_mult_97_n322
*1169 DP_mult_97_n321
*1170 DP_mult_97_n320
*1171 DP_mult_97_n319
*1172 DP_mult_97_n318
*1173 DP_mult_97_n317
*1174 DP_mult_97_n316
*1175 DP_mult_97_n315
*1176 DP_mult_97_n314
*1177 DP_mult_97_n313
*1178 DP_mult_97_n312
*1179 DP_mult_97_n311
*1180 DP_mult_97_n310
*1181 DP_mult_97_n309
*1182 DP_mult_97_n308
*1183 DP_mult_97_n307
*1184 DP_mult_97_n306
*1185 DP_mult_97_n305
*1186 DP_mult_97_n303
*1187 DP_mult_97_n302
*1188 DP_mult_97_n301
*1189 DP_mult_97_n300
*1190 DP_mult_97_n299
*1191 DP_mult_97_n298
*1192 DP_mult_97_n297
*1193 DP_mult_97_n296
*1194 DP_mult_97_n295
*1195 DP_mult_97_n294
*1196 DP_mult_97_n293
*1197 DP_mult_97_n292
*1198 DP_mult_97_n291
*1199 DP_mult_97_n290
*1200 DP_mult_97_n289
*1201 DP_mult_97_n288
*1202 DP_mult_97_n287
*1203 DP_mult_97_n286
*1204 DP_mult_97_n285
*1205 DP_mult_97_n284
*1206 DP_mult_97_n283
*1207 DP_mult_97_n281
*1208 DP_mult_97_n280
*1209 DP_mult_97_n279
*1210 DP_mult_97_n278
*1211 DP_mult_97_n277
*1212 DP_mult_97_n276
*1213 DP_mult_97_n275
*1214 DP_mult_97_n274
*1215 DP_mult_97_n273
*1216 DP_mult_97_n272
*1217 DP_mult_97_n271
*1218 DP_mult_97_n270
*1219 DP_mult_97_n269
*1220 DP_mult_97_n268
*1221 DP_mult_97_n267
*1222 DP_mult_97_n266
*1223 DP_mult_97_n265
*1224 DP_mult_97_n264
*1225 DP_mult_97_n263
*1226 DP_mult_97_n259
*1227 DP_mult_97_n258
*1228 DP_mult_97_n257
*1229 DP_mult_97_n256
*1230 DP_mult_97_n255
*1231 DP_mult_97_n254
*1232 DP_mult_97_n253
*1233 DP_mult_97_n252
*1234 DP_mult_97_n251
*1235 DP_mult_97_n250
*1236 DP_mult_97_n249
*1237 DP_mult_97_n248
*1238 DP_mult_97_n247
*1239 DP_mult_97_n246
*1240 DP_mult_97_n245
*1241 DP_mult_97_n244
*1242 DP_mult_97_n243
*1243 DP_mult_97_n242
*1244 DP_mult_97_n241
*1245 DP_mult_97_n240
*1246 DP_mult_97_n239
*1247 DP_mult_97_n238
*1248 DP_mult_97_n237
*1249 DP_mult_97_n236
*1250 DP_mult_97_n235
*1251 DP_mult_97_n234
*1252 DP_mult_97_n233
*1253 DP_mult_97_n232
*1254 DP_mult_97_n231
*1255 DP_mult_97_n230
*1256 DP_mult_97_n229
*1257 DP_mult_97_n228
*1258 DP_mult_97_n227
*1259 DP_mult_97_n226
*1260 DP_mult_97_n225
*1261 DP_mult_97_n224
*1262 DP_mult_97_n223
*1263 DP_mult_97_n222
*1264 DP_mult_97_n221
*1265 DP_mult_97_n220
*1266 DP_mult_97_n219
*1267 DP_mult_97_n218
*1268 DP_mult_97_n217
*1269 DP_mult_97_n216
*1270 DP_mult_97_n215
*1271 DP_mult_97_n214
*1272 DP_mult_97_n213
*1273 DP_mult_97_n212
*1274 DP_mult_97_n211
*1275 DP_mult_97_n210
*1276 DP_mult_97_n209
*1277 DP_mult_97_n208
*1278 DP_mult_97_n207
*1279 DP_mult_97_n206
*1280 DP_mult_97_n205
*1281 DP_mult_97_n204
*1282 DP_mult_97_n203
*1283 DP_mult_97_n202
*1284 DP_mult_97_n201
*1285 DP_mult_97_n200
*1286 DP_mult_97_n199
*1287 DP_mult_97_n198
*1288 DP_mult_97_n197
*1289 DP_mult_97_n196
*1290 DP_mult_97_n195
*1291 DP_mult_97_n194
*1292 DP_mult_97_n193
*1293 DP_mult_97_n192
*1294 DP_mult_97_n191
*1295 DP_mult_97_n190
*1296 DP_mult_97_n189
*1297 DP_mult_97_n188
*1298 DP_mult_97_n187
*1299 DP_mult_97_n186
*1300 DP_mult_97_n185
*1301 DP_mult_97_n184
*1302 DP_mult_97_n183
*1303 DP_mult_97_n182
*1304 DP_mult_97_n181
*1305 DP_mult_97_n180
*1306 DP_mult_97_n179
*1307 DP_mult_97_n178
*1308 DP_mult_97_n177
*1309 DP_mult_97_n176
*1310 DP_mult_97_n175
*1311 DP_mult_97_n174
*1312 DP_mult_97_n173
*1313 DP_mult_97_n172
*1314 DP_mult_97_n171
*1315 DP_mult_97_n170
*1316 DP_mult_97_n169
*1317 DP_mult_97_n168
*1318 DP_mult_97_n167
*1319 DP_mult_97_n166
*1320 DP_mult_97_n165
*1321 DP_mult_97_n164
*1322 DP_mult_97_n163
*1323 DP_mult_97_n162
*1324 DP_mult_97_n161
*1325 DP_mult_97_n160
*1326 DP_mult_97_n159
*1327 DP_mult_97_n158
*1328 DP_mult_97_n157
*1329 DP_mult_97_n156
*1330 DP_mult_97_n155
*1331 DP_mult_97_n154
*1332 DP_mult_97_n153
*1333 DP_mult_97_n152
*1334 DP_mult_97_n151
*1335 DP_mult_97_n150
*1336 DP_mult_97_n149
*1337 DP_mult_97_n148
*1338 DP_mult_97_n147
*1339 DP_mult_97_n146
*1340 DP_mult_97_n145
*1341 DP_mult_97_n144
*1342 DP_mult_97_n143
*1343 DP_mult_97_n142
*1344 DP_mult_97_n141
*1345 DP_mult_97_n140
*1346 DP_mult_97_n139
*1347 DP_mult_97_n138
*1348 DP_mult_97_n126
*1349 DP_mult_97_n125
*1350 DP_mult_97_n124
*1351 DP_mult_97_n123
*1352 DP_mult_97_n122
*1353 DP_mult_97_n121
*1354 DP_mult_97_n120
*1355 DP_mult_97_n119
*1356 DP_mult_97_n118
*1357 DP_mult_97_n117
*1358 DP_mult_97_n116
*1359 DP_mult_97_n115
*1360 DP_mult_99_n660
*1361 DP_mult_99_n659
*1362 DP_mult_99_n658
*1363 DP_mult_99_n657
*1364 DP_mult_99_n656
*1365 DP_mult_99_n655
*1366 DP_mult_99_n654
*1367 DP_mult_99_n653
*1368 DP_mult_99_n652
*1369 DP_mult_99_n651
*1370 DP_mult_99_n650
*1371 DP_mult_99_n649
*1372 DP_mult_99_n648
*1373 DP_mult_99_n647
*1374 DP_mult_99_n646
*1375 DP_mult_99_n645